LAMMPS (7 Aug 2019)
units			real
atom_style		full
bond_style		harmonic
angle_style             harmonic
dihedral_style		harmonic
pair_style              lj/cut/coul/long 10.0
pair_modify             mix arithmetic shift yes
kspace_style  	        pppm 1e-04
boundary      	        p p p
special_bonds 		amber

read_data	    	Data.NPTRelax1
  orthogonal box = (-2.39001 -2.39001 -2.39001) to (38.39 38.39 38.39)
  reading atoms ...
  6000 atoms
  reading velocities ...
  6000 velocities
  scanning bonds ...
  scanning angles ...
  scanning dihedrals ...
  reading bonds ...
  5000 bonds
  reading angles ...
  7000 angles
  reading dihedrals ...
  3000 dihedrals

variable 		MassinGrams equal mass(all)/6.02e23
variable 		VolumeCubicCentimeter equal vol*1.0e-24
variable 		Density equal v_MassinGrams/v_VolumeCubicCentimeter
variable		SpecificVolume equal 1.0/v_Density
variable                px equal pxx
variable                py equal pyy
variable                pz equal pzz
variable                p equal press

reset_timestep 		0

timestep  	    	1

thermo_style    	custom step time atoms temp press vol etotal epair emol evdwl ecoul elong ebond eangle enthalpy pe ke v_Density lx ly lz cpu
thermo 		    	1000

fix                     PX all ave/time 1 100000 100000 v_px mode scalar file px.dat
fix                     PY all ave/time 1 100000 100000 v_py mode scalar file py.dat
fix                     PZ all ave/time 1 100000 100000 v_pz mode scalar file pz.dat
fix                     P  all ave/time 1 100000 100000 v_p mode scalar file p.dat

fix                     NPT4 all npt temp 295 295 100 iso 1 1 1000
run                     4000000
PPPM initialization ...
  G vector (1/distance) = 0.233608
  grid = 15 15 15
  stencil order = 5
  estimated absolute RMS force accuracy = 0.0333745
  estimated relative force accuracy = 0.000100506
  3d grid and FFT values/proc = 1000 90
  update every 1 steps, delay 10 steps, check yes
Step Time Atoms Temp Press Volume TotEng E_pair E_mol E_vdwl E_coul E_long E_bond E_angle Enthalpy PotEng KinEng v_Density Lx Ly Lz CPU
0            0     6000    298.87322   -63.662294     67817.62    5265.3328   -3881.4646    3802.3825   -1647.5981    20972.021   -23205.888    1710.1748     1780.027    5202.3676   -79.082154     5344.415   0.78483901    40.780027    40.780027    40.780027            0
Averages over the last 2001 of 4001 rows, steps 2000000 to 4000000:
Atoms Temp Press Volume TotEng E_pair E_mol E_vdwl E_coul E_long E_bond E_angle Enthalpy PotEng KinEng v_Density Lx Ly Lz
6000 295.076 2.04785 69546 5304.91 -3776.87 3805.27 -1631.48 21057.2 -23202.6 1709.71 1788.83 5306.32 28.4022 5276.51 0.765402 41.1232 41.1232 41.1232
Loop time of 5881.56 on 48 procs for 4000000 steps with 6000 atoms

unfix                   NPT4
write_data		Data.NPTRelax2
PPPM initialization ...
  G vector (1/distance) = 0.233245
  grid = 15 15 15
  stencil order = 5
  estimated absolute RMS force accuracy = 0.0337445
  estimated relative force accuracy = 0.000101621
  3d grid and FFT values/proc = 1000 90
